*HEADING
cubit(shGenerationAndInterpolation/Trelis_QPATMesh_Accurate.inp): 03/17/2018: 11
version: 16.4
**
********************************** P A R T S **********************************
*PART, NAME=Part-Default
**
********************************** N O D E S **********************************
*NODE, NSET=ALLNODES
       1,    8.500000e-03,   -6.500000e-03
       2,    8.500000e-03,    8.500000e-03
       3,   -6.500000e-03,   -6.500000e-03
       4,   -6.500000e-03,    8.500000e-03
       5,    1.000000e-02,    1.000000e-02
       6,   -1.000000e-02,    1.000000e-02
       7,   -1.000000e-02,   -1.000000e-02
       8,    1.000000e-02,   -1.000000e-02
       9,    8.500000e-03,   -6.045455e-03
      10,    8.500000e-03,   -5.590909e-03
      11,    8.500000e-03,   -5.136364e-03
      12,    8.500000e-03,   -4.681818e-03
      13,    8.500000e-03,   -4.227273e-03
      14,    8.500000e-03,   -3.772727e-03
      15,    8.500000e-03,   -3.318182e-03
      16,    8.500000e-03,   -2.863636e-03
      17,    8.500000e-03,   -2.409091e-03
      18,    8.500000e-03,   -1.954545e-03
      19,    8.500000e-03,   -1.500000e-03
      20,    8.500000e-03,   -1.045455e-03
** ... 2224 like lines cut
**
********************************** E L E M E N T S ****************************
*ELEMENT, TYPE=STRI3, ELSET=EB1
       1,     270,     309,     269
       2,     274,     310,     273
       3,     311,     310,     274
       4,     312,     311,     275
       5,     313,     312,     276
       6,     314,     313,     277
       7,     315,     314,     278
       8,     316,     315,     279
       9,     317,     316,     280
      10,     318,     317,     281
      11,     319,     318,     282
      12,     320,     319,     283
      13,     321,     320,     284
      14,     322,     321,     285
      15,     137,     308,       5
      16,     218,     323,     217
      17,     231,     324,     230
      18,     325,     324,     231
      19,     326,     516,     233
      20,     327,     326,     234
** ... 1962 like lines cut
*ELEMENT, TYPE=STRI3, ELSET=EB2
    1983,       9,      72,       1
    1984,      12,    1234,      11
    1985,    1235,    1234,      12
    1986,    1236,    1235,      13
    1987,    1237,    1236,      14
    1988,    1238,    1237,      15
    1989,    1239,    1238,      16
    1990,    1240,    1239,      17
    1991,    1241,    1240,      18
    1992,    1242,    1241,      19
    1993,    1243,    1242,      20
    1994,    1244,    1243,      21
    1995,    1245,    1244,      22
    1996,    1246,    1245,      23
    1997,    1247,    1246,      24
    1998,    1248,    1247,      25
    1999,    1249,    1248,      26
    2000,    1250,    1249,      27
    2001,     110,    1251,     109
    2002,     104,    1252,     103
** ... 1292 like lines cut
*ELEMENT, TYPE=STRI3, ELSET=EB3
    3295,    1170,    1147,    1213
    3296,    1158,    1780,    1157
    3297,    1161,    1781,    1160
    3298,    1163,    1782,    1162
    3299,    1783,    1789,    1164
    3300,    1784,    1783,    1165
    3301,    1785,    1784,    1166
    3302,    1786,    1785,    1167
    3303,    1787,    1786,    1168
    3304,    1788,    1787,    1169
    3305,    1789,    1163,    1164
    3306,    1790,    1161,    1162
    3307,    1791,    1788,    1213
    3308,    1792,    1159,    1160
    3309,    1793,    1791,    1214
    3310,    1794,    1158,    1159
    3311,    1795,    1793,    1215
    3312,    1796,    1156,    1157
    3313,    1798,    1155,    1156
    3314,    1800,    1799,    1218
** ... 996 like lines cut
**
********************************** N O D E S E T S **********************************
*NSET, NSET=NS1
       5,       6,       7,       8,     137,     138,
     139,     140,     141,     142,     143,     144,
     145,     146,     147,     148,     149,     150,
     151,     152,     153,     154,     155,     156,
     157,     158,     159,     160,     161,     162,
     163,     164,     165,     166,     167,     168,
     169,     170,     171,     172,     173,     174,
     175,     176,     177,     178,     179,     180,
     181,     182,     183,     184,     185,     186,
     187,     188,     189,     190,     191,     192,
     193,     194,     195,     196,     197,     198,
     199,     200,     201,     202,     203,     204,
     205,     206,     207,     208,     209,     210,
     211,     212,     213,     214,     215,     216,
     217,     218,     219,     220,     221,     222,
     223,     224,     225,     226,     227,     228,
     229,     230,     231,     232,     233,     234,
     235,     236,     237,     238,     239,     240,
     241,     242,     243,     244,     245,     246,
     247,     248,     249,     250,     251,     252,
** ... 10 like lines cut
**
********************************** S I D E S E T S **********************************
*ELSET, ELSET=SS1_E1
      38,     188,     235
*ELSET, ELSET=SS1_E2
      15,     142,     190,     192,     236,     238,     280,     283,     285,     287,
     289,     291,     293,     295,     297,     299,     301,     303,     305,     307,
     308,     311,     312,     314,     316,     318,     319,     321,     323,     325,
     327,     329,     331,     333,     335,     337,     339,     340,     341,     343,
     345,     348,     350,     352,     353,     354,     356,     358,     360,     362,
     364,     366,     368,     370,     372,     374,     375,     376,     377,     379,
     380,     382,     384,     386,     388,     390,     392,     394,     396,     398,
     400,     402,     404,     406,     409,     410,     412,     413,     419,     423,
     427,     431,     437,     441,     445,     449,     455,     459,     463,     470,
     474,     476,     479,     521,     523,     532,     536,     539,     551,     554,
     556,     565,     593,     613,     617,     627,     637,     642,     646,     651,
     655,     660,     664,     710,     721,     724,     725,     726,     737,     738,
     739,     741,     746,     760,     766,     772,     778,     785,     789,     792,
     793,     800,     808,     810,     812,     816,     824,     832,     840,     841
*ELSET, ELSET=SS1_E3
       1,       2,      15,      16,      17,      21,      24,      26,      28,      30,
      32,      33,      34,      35,      36,      37,      38,      39,      41,      44,
      46,      48,      50,      52,      54,      55,      57,      76,     186,     188,
     234,     235,     279
*SURFACE, NAME=SS1
SS1_E1, E1
SS1_E2, E2
SS1_E3, E3
**
********************************** P R O P E R T I E S ************************
*SHELL SECTION, ELSET=EB1, SECTION INTEGRATION=SIMPSON, MATERIAL=Default-Steel
1.000000e+00
*SHELL SECTION, ELSET=EB2, SECTION INTEGRATION=SIMPSON, MATERIAL=Default-Steel
1.000000e+00
*SHELL SECTION, ELSET=EB3, SECTION INTEGRATION=SIMPSON, MATERIAL=Default-Steel
1.000000e+00
**
*END PART
**
**
**
********************************** E N D   P A R T S **********************************
**
**
********************************** A S S E M B L Y ************************************
**
*ASSEMBLY, NAME=ASSEMBLY1
**
*INSTANCE, NAME=Part-Default_1, PART=Part-Default
*END INSTANCE
**
*END ASSEMBLY
**
**
**
*MATERIAL, NAME = Default-Steel
*ELASTIC, TYPE=ISOTROPIC
2.068000e+05, 2.900000e-01
*DENSITY
7.000000e-06
*CONDUCTIVITY,TYPE=ISO
4.500000e-02
*SPECIFIC HEAT
5.000000e+02
**
**
************************************** H I S T O R Y *************************************
**
*PREPRINT
**
**************************************** S T E P 1 ***************************************
*STEP,INC=100,NAME=Default Set
**
*STATIC
1, 1, 1e-05, 1
**
**
**
**
*END STEP
