*HEADING
cubit(n/MeshGenerationAndInterpolation/Trelis_QPATMesh_Data.inp): 08/22/2018: 10
version: 16.4
**
********************************** P A R T S **********************************
*PART, NAME=Part-Default
**
********************************** N O D E S **********************************
*NODE, NSET=ALLNODES
       1,    8.700000e-03,   -6.300000e-03
       2,    8.700000e-03,    8.700000e-03
       3,   -6.300000e-03,   -6.300000e-03
       4,   -6.300000e-03,    8.700000e-03
       5,    1.000000e-02,    1.000000e-02
       6,   -1.000000e-02,    1.000000e-02
       7,   -1.000000e-02,   -1.000000e-02
       8,    1.000000e-02,   -1.000000e-02
       9,    8.700000e-03,   -5.800000e-03
      10,    8.700000e-03,   -5.300000e-03
      11,    8.700000e-03,   -4.800000e-03
      12,    8.700000e-03,   -4.300000e-03
      13,    8.700000e-03,   -3.800000e-03
      14,    8.700000e-03,   -3.300000e-03
      15,    8.700000e-03,   -2.800000e-03
      16,    8.700000e-03,   -2.300000e-03
      17,    8.700000e-03,   -1.800000e-03
      18,    8.700000e-03,   -1.300000e-03
      19,    8.700000e-03,   -8.000000e-04
      20,    8.700000e-03,   -3.000000e-04
** ... 1810 like lines cut
**
********************************** E L E M E N T S ****************************
*ELEMENT, TYPE=STRI3, ELSET=EB1
       1,     247,     281,     246
       2,     250,     282,     249
       3,     283,     282,     250
       4,     284,     283,     251
       5,     285,     284,     252
       6,     286,     285,     253
       7,     287,     286,     254
       8,     288,     287,     255
       9,     289,     288,     256
      10,     290,     289,     257
      11,     291,     290,     258
      12,     292,     291,     259
      13,     125,     280,       5
      14,     198,     293,     197
      15,     212,     294,     211
      16,     295,     294,     212
      17,     296,     295,     213
      18,     216,     297,     215
      19,     298,     297,     216
      20,     219,     299,     218
** ... 1634 like lines cut
*ELEMENT, TYPE=STRI3, ELSET=EB2
    1655,       9,      66,       1
    1656,      14,    1048,      13
    1657,    1049,    1048,      14
    1658,    1050,    1049,      15
    1659,    1051,    1050,      16
    1660,    1052,    1051,      17
    1661,    1053,    1052,      18
    1662,    1054,    1053,      19
    1663,    1055,    1054,      20
    1664,    1056,    1055,      21
    1665,    1057,    1056,      22
    1666,    1058,    1057,      23
    1667,    1059,    1058,      24
    1668,      99,    1060,      98
    1669,      94,    1061,      93
    1670,      43,    1062,      42
    1671,    1063,    1062,      43
    1672,      46,    1064,      45
    1673,    1065,    1064,      46
    1674,      49,    1066,      48
** ... 986 like lines cut
*ELEMENT, TYPE=STRI3, ELSET=EB3
    2661,     990,     969,    1029
    2662,     980,    1451,     979
    2663,     983,    1452,     982
    2664,    1453,    1452,     983
    2665,     986,    1454,     985
    2666,    1455,    1454,     986
    2667,    1456,    1455,     987
    2668,    1457,    1456,     988
    2669,    1458,    1457,     989
    2670,    1459,     984,     985
    2671,    1460,     981,     982
    2672,    1030,    1461,    1029
    2673,    1462,     980,     981
    2674,    1463,    1461,    1030
    2675,    1464,     978,     979
    2676,    1465,    1463,    1031
    2677,    1466,     977,     978
    2678,    1467,    1465,    1032
    2679,    1468,     976,     977
    2680,    1469,    1467,    1033
** ... 818 like lines cut
**
********************************** N O D E S E T S **********************************
*NSET, NSET=NS1
       5,       6,       7,       8,     125,     126,
     127,     128,     129,     130,     131,     132,
     133,     134,     135,     136,     137,     138,
     139,     140,     141,     142,     143,     144,
     145,     146,     147,     148,     149,     150,
     151,     152,     153,     154,     155,     156,
     157,     158,     159,     160,     161,     162,
     163,     164,     165,     166,     167,     168,
     169,     170,     171,     172,     173,     174,
     175,     176,     177,     178,     179,     180,
     181,     182,     183,     184,     185,     186,
     187,     188,     189,     190,     191,     192,
     193,     194,     195,     196,     197,     198,
     199,     200,     201,     202,     203,     204,
     205,     206,     207,     208,     209,     210,
     211,     212,     213,     214,     215,     216,
     217,     218,     219,     220,     221,     222,
     223,     224,     225,     226,     227,     228,
     229,     230,     231,     232,     233,     234,
     235,     236,     237,     238,     239,     240,
** ... 7 like lines cut
**
********************************** S I D E S E T S **********************************
*ELSET, ELSET=SS1_E1
      34,     172,     214
*ELSET, ELSET=SS1_E2
      13,     129,     132,     174,     176,     215,     217,     272,     273,     275,
     277,     279,     281,     283,     285,     287,     289,     291,     293,     295,
     297,     298,     299,     300,     302,     304,     306,     308,     310,     312,
     314,     315,     316,     318,     320,     321,     322,     323,     324,     326,
     327,     328,     329,     331,     332,     334,     335,     337,     338,     340,
     341,     343,     344,     345,     347,     349,     352,     353,     355,     357,
     359,     361,     363,     365,     367,     369,     371,     373,     375,     386,
     433,     476,     482,     499,     504,     510,     517,     536,     539,     558,
     564,     569,     574,     579,     591,     600,     601,     607,     627,     637,
     644,     650,     660,     664,     666,     671,     677,     679,     684,     685,
     688,     694,     699,     707,     713,     719,     725,     731,     737,     743,
     749,     755,     761,     767,     778
*ELSET, ELSET=SS1_E3
       1,       2,      13,      14,      15,      18,      20,      24,      29,      30,
      32,      33,      34,      35,      39,      41,      45,      47,      50,      52,
      69,      96,      97,      99,     101,     102,     103,     104,     105,     106,
     107,     108,     109,     110,     111,     112,     135,     170,     172,     213,
     214,     252
*SURFACE, NAME=SS1
SS1_E1, E1
SS1_E2, E2
SS1_E3, E3
**
********************************** P R O P E R T I E S ************************
*SHELL SECTION, ELSET=EB1, SECTION INTEGRATION=SIMPSON, MATERIAL=Default-Steel
1.000000e+00
*SHELL SECTION, ELSET=EB2, SECTION INTEGRATION=SIMPSON, MATERIAL=Default-Steel
1.000000e+00
*SHELL SECTION, ELSET=EB3, SECTION INTEGRATION=SIMPSON, MATERIAL=Default-Steel
1.000000e+00
**
*END PART
**
**
**
********************************** E N D   P A R T S **********************************
**
**
********************************** A S S E M B L Y ************************************
**
*ASSEMBLY, NAME=ASSEMBLY1
**
*INSTANCE, NAME=Part-Default_1, PART=Part-Default
*END INSTANCE
**
*END ASSEMBLY
**
**
**
*MATERIAL, NAME = Default-Steel
*ELASTIC, TYPE=ISOTROPIC
2.068000e+05, 2.900000e-01
*DENSITY
7.000000e-06
*CONDUCTIVITY,TYPE=ISO
4.500000e-02
*SPECIFIC HEAT
5.000000e+02
**
**
************************************** H I S T O R Y *************************************
**
*PREPRINT
**
**************************************** S T E P 1 ***************************************
*STEP,INC=100,NAME=Default Set
**
*STATIC
1, 1, 1e-05, 1
**
**
**
**
*END STEP
