*HEADING
cubit(eshGenerationAndInterpolation/Trelis_QPATMesh_Inverse.inp): 03/18/2018: 12
version: 16.1.1
**
********************************** P A R T S **********************************
*PART, NAME=Part-Default
**
********************************** N O D E S **********************************
*NODE, NSET=ALLNODES
       1,    9.000000e-03,   -6.000000e-03
       2,    9.000000e-03,    9.000000e-03
       3,   -6.000000e-03,   -6.000000e-03
       4,   -6.000000e-03,    9.000000e-03
       5,    1.000000e-02,    1.000000e-02
       6,   -1.000000e-02,    1.000000e-02
       7,   -1.000000e-02,   -1.000000e-02
       8,    1.000000e-02,   -1.000000e-02
       9,    9.000000e-03,   -5.545455e-03
      10,    9.000000e-03,   -5.090909e-03
      11,    9.000000e-03,   -4.636364e-03
      12,    9.000000e-03,   -4.181818e-03
      13,    9.000000e-03,   -3.727273e-03
      14,    9.000000e-03,   -3.272727e-03
      15,    9.000000e-03,   -2.818182e-03
      16,    9.000000e-03,   -2.363636e-03
      17,    9.000000e-03,   -1.909091e-03
      18,    9.000000e-03,   -1.454545e-03
      19,    9.000000e-03,   -1.000000e-03
      20,    9.000000e-03,   -5.454545e-04
** ... 2157 like lines cut
**
********************************** E L E M E N T S ****************************
*ELEMENT, TYPE=STRI3, ELSET=EB1
       1,     273,     309,     272
       2,     275,     310,     274
       3,     311,     310,     275
       4,     312,     311,     276
       5,     313,     312,     277
       6,     314,     313,     278
       7,     315,     314,     279
       8,     316,     315,     280
       9,     317,     316,     281
      10,     318,     317,     282
      11,     319,     318,     283
      12,     320,     319,     284
      13,     321,     320,     285
      14,     295,     322,     294
      15,     137,     308,       5
      16,     217,     323,     216
      17,     232,     324,     231
      18,     325,     483,     233
      19,     326,     325,     234
      20,     237,     327,     236
** ... 1834 like lines cut
*ELEMENT, TYPE=STRI3, ELSET=EB2
    1855,       9,      72,       1
    1856,      13,    1170,      12
    1857,    1171,    1170,      13
    1858,    1172,    1171,      14
    1859,    1173,    1172,      15
    1860,    1174,    1173,      16
    1861,    1175,    1174,      17
    1862,    1176,    1175,      18
    1863,    1177,    1176,      19
    1864,    1178,    1177,      20
    1865,    1179,    1178,      21
    1866,    1180,    1179,      22
    1867,    1181,    1180,      23
    1868,    1182,    1181,      24
    1869,    1183,    1182,      25
    1870,     109,    1184,     108
    1871,     103,    1185,     102
    1872,      45,    1186,      44
    1873,      47,    1187,      46
    1874,    1188,    1187,      47
** ... 1286 like lines cut
*ELEMENT, TYPE=STRI3, ELSET=EB3
    3161,    1106,    1083,    1149
    3162,    1094,    1713,    1093
    3163,    1097,    1714,    1096
    3164,    1715,    1723,    1098
    3165,    1101,    1716,    1100
    3166,    1717,    1716,    1101
    3167,    1718,    1717,    1102
    3168,    1719,    1718,    1103
    3169,    1720,    1719,    1104
    3170,    1721,    1720,    1105
    3171,    1722,    1099,    1100
    3172,    1723,    1097,    1098
    3173,    1724,    1106,    1149
    3174,    1725,    1095,    1096
    3175,    1726,    1724,    1150
    3176,    1727,    1094,    1095
    3177,    1728,    1726,    1151
    3178,    1729,    1092,    1093
    3179,    1730,    1728,    1152
    3180,    1731,    1091,    1092
** ... 996 like lines cut
**
********************************** N O D E S E T S **********************************
*NSET, NSET=NS1
       5,       6,       7,       8,     137,     138,
     139,     140,     141,     142,     143,     144,
     145,     146,     147,     148,     149,     150,
     151,     152,     153,     154,     155,     156,
     157,     158,     159,     160,     161,     162,
     163,     164,     165,     166,     167,     168,
     169,     170,     171,     172,     173,     174,
     175,     176,     177,     178,     179,     180,
     181,     182,     183,     184,     185,     186,
     187,     188,     189,     190,     191,     192,
     193,     194,     195,     196,     197,     198,
     199,     200,     201,     202,     203,     204,
     205,     206,     207,     208,     209,     210,
     211,     212,     213,     214,     215,     216,
     217,     218,     219,     220,     221,     222,
     223,     224,     225,     226,     227,     228,
     229,     230,     231,     232,     233,     234,
     235,     236,     237,     238,     239,     240,
     241,     242,     243,     244,     245,     246,
     247,     248,     249,     250,     251,     252,
** ... 10 like lines cut
**
********************************** S I D E S E T S **********************************
*ELSET, ELSET=SS1_E1
      40,     189,     238
*ELSET, ELSET=SS1_E2
      15,     144,     191,     193,     196,     302,     304,     306,     308,     310,
     312,     314,     316,     318,     320,     322,     324,     326,     328,     329,
     331,     333,     334,     336,     337,     339,     341,     343,     345,     347,
     349,     351,     353,     355,     357,     359,     360,     361,     363,     365,
     368,     369,     371,     372,     373,     375,     376,     378,     379,     381,
     382,     384,     385,     387,     388,     390,     391,     393,     394,     396,
     398,     400,     402,     404,     406,     408,     410,     412,     414,     416,
     418,     420,     422,     423,     427,     429,     431,     433,     435,     437,
     439,     441,     443,     445,     447,     449,     451,     453,     455,     457,
     459,     461,     470,     480,     483,     494,     496,     501,     505,     532,
     560,     561,     571,     572,     584,     589,     590,     592,     595,     608,
     613,     615,     641,     667,     673,     675,     676,     679,     681,     683,
     685,     690,     692,     697
*ELSET, ELSET=SS1_E3
       1,       2,      14,      15,      16,      17,      20,      23,      25,      27,
      29,      31,      33,      34,      35,      36,      39,      40,      41,      42,
      45,      47,      49,      51,      53,      55,      59,     138,     150,     187,
     189,     238,     268,     269,     271,     272,     274,     275,     281,     283,
     284,     286,     287,     289,     290,     292,     293,     295,     296
*SURFACE, NAME=SS1
SS1_E1, E1
SS1_E2, E2
SS1_E3, E3
**
********************************** P R O P E R T I E S ************************
*SHELL SECTION, ELSET=EB1, SECTION INTEGRATION=SIMPSON, MATERIAL=Default-Steel
1.000000e+00
*SHELL SECTION, ELSET=EB2, SECTION INTEGRATION=SIMPSON, MATERIAL=Default-Steel
1.000000e+00
*SHELL SECTION, ELSET=EB3, SECTION INTEGRATION=SIMPSON, MATERIAL=Default-Steel
1.000000e+00
**
*END PART
**
**
**
********************************** E N D   P A R T S **********************************
**
**
********************************** A S S E M B L Y ************************************
**
*ASSEMBLY, NAME=ASSEMBLY1
**
*INSTANCE, NAME=Part-Default_1, PART=Part-Default
*END INSTANCE
**
*END ASSEMBLY
**
**
**
*MATERIAL, NAME = Default-Steel
*ELASTIC, TYPE=ISOTROPIC
2.068000e+05, 2.900000e-01
*DENSITY
7.000000e-06
*CONDUCTIVITY,TYPE=ISO
4.500000e-02
*SPECIFIC HEAT
5.000000e+02
**
**
************************************** H I S T O R Y *************************************
**
*PREPRINT
**
**************************************** S T E P 1 ***************************************
*STEP,INC=100,NAME=Default Set
**
*STATIC
1, 1, 1e-05, 1
**
**
**
**
*END STEP
